Unsupported Ngspice version 41
Unsupported Ngspice version 41
Warning: Unusual leading characters like ')' or others out of '= [] ? () & % $"!:,\f'
Warning: Unusual leading characters like ')' or others out of '= [] ? () & % $"!:,\f'
in netlist or included files, will be replaced with '*'.
in netlist or included files, will be replaced with '*'.
Check line no 4:  )
Check line no 4:  )
Warning: Model issue on line 3 :
Warning: Model issue on line 3 :
.model ncg nmos (level=1 vto=0.75 gamma=1.09 phi=0.9499477708465783 tpg= ...
.model ncg nmos (level=1 vto=0.75 gamma=1.09 phi=0.9499477708465783 tpg= ...
unrecognized parameter (theta) - ignored
unrecognized parameter (theta) - ignored
Warning: option itl5 is currently unsupported.
Warning: option itl5 is currently unsupported.
Warning: Unusual leading characters like ')' or others out of '= [] ? () & % $"!:,\f'
Warning: Unusual leading characters like ')' or others out of '= [] ? () & % $"!:,\f'
in netlist or included files, will be replaced with '*'.
in netlist or included files, will be replaced with '*'.
Check line no 4:  )
Check line no 4:  )
Warning: Model issue on line 3 :
Warning: Model issue on line 3 :
.model ncg nmos (level=1 vto=0.75 gamma=1.09 phi=0.9499477708465783 tpg= ...
.model ncg nmos (level=1 vto=0.75 gamma=1.09 phi=0.9499477708465783 tpg= ...
unrecognized parameter (theta) - ignored
unrecognized parameter (theta) - ignored
Warning: option itl5 is currently unsupported.
Warning: option itl5 is currently unsupported.
Warning: Unusual leading characters like ')' or others out of '= [] ? () & % $"!:,\f'
Warning: Unusual leading characters like ')' or others out of '= [] ? () & % $"!:,\f'
in netlist or included files, will be replaced with '*'.
in netlist or included files, will be replaced with '*'.
Check line no 4:  )
Check line no 4:  )
Warning: Model issue on line 3 :
Warning: Model issue on line 3 :
.model ncg nmos (level=1 vto=0.75 gamma=1.09 phi=0.9499477708465783 tpg= ...
.model ncg nmos (level=1 vto=0.75 gamma=1.09 phi=0.9499477708465783 tpg= ...
unrecognized parameter (theta) - ignored
unrecognized parameter (theta) - ignored
Warning: option itl5 is currently unsupported.
Warning: option itl5 is currently unsupported.
Warning: Unusual leading characters like ')' or others out of '= [] ? () & % $"!:,\f'
Warning: Unusual leading characters like ')' or others out of '= [] ? () & % $"!:,\f'
in netlist or included files, will be replaced with '*'.
in netlist or included files, will be replaced with '*'.
Check line no 4:  )
Check line no 4:  )
Warning: Model issue on line 3 :
Warning: Model issue on line 3 :
.model ncg nmos (level=1 vto=0.75 gamma=1.09 phi=0.9499477708465783 tpg= ...
.model ncg nmos (level=1 vto=0.75 gamma=1.09 phi=0.9499477708465783 tpg= ...
unrecognized parameter (theta) - ignored
unrecognized parameter (theta) - ignored
Warning: option itl5 is currently unsupported.
Warning: option itl5 is currently unsupported.
Warning: Unusual leading characters like ')' or others out of '= [] ? () & % $"!:,\f'
Warning: Unusual leading characters like ')' or others out of '= [] ? () & % $"!:,\f'
in netlist or included files, will be replaced with '*'.
in netlist or included files, will be replaced with '*'.
Check line no 4:  )
Check line no 4:  )
Warning: Model issue on line 3 :
Warning: Model issue on line 3 :
.model ncg nmos (level=1 vto=0.75 gamma=1.09 phi=0.9499477708465783 tpg= ...
.model ncg nmos (level=1 vto=0.75 gamma=1.09 phi=0.9499477708465783 tpg= ...
unrecognized parameter (theta) - ignored
unrecognized parameter (theta) - ignored
Warning: option itl5 is currently unsupported.
Warning: option itl5 is currently unsupported.
Warning: Unusual leading characters like ')' or others out of '= [] ? () & % $"!:,\f'
Warning: Unusual leading characters like ')' or others out of '= [] ? () & % $"!:,\f'
in netlist or included files, will be replaced with '*'.
in netlist or included files, will be replaced with '*'.
Check line no 4:  )
Check line no 4:  )
Warning: Model issue on line 3 :
Warning: Model issue on line 3 :
.model ncg nmos (level=1 vto=0.75 gamma=1.09 phi=0.9499477708465783 tpg= ...
.model ncg nmos (level=1 vto=0.75 gamma=1.09 phi=0.9499477708465783 tpg= ...
unrecognized parameter (theta) - ignored
unrecognized parameter (theta) - ignored
Warning: option itl5 is currently unsupported.
Warning: option itl5 is currently unsupported.
Warning: Unusual leading characters like ')' or others out of '= [] ? () & % $"!:,\f'
Warning: Unusual leading characters like ')' or others out of '= [] ? () & % $"!:,\f'
in netlist or included files, will be replaced with '*'.
in netlist or included files, will be replaced with '*'.
Check line no 4:  )
Check line no 4:  )
Warning: Model issue on line 3 :
Warning: Model issue on line 3 :
.model ncg nmos (level=1 vto=0.75 gamma=1.09 phi=0.9499477708465783 tpg= ...
.model ncg nmos (level=1 vto=0.75 gamma=1.09 phi=0.9499477708465783 tpg= ...
unrecognized parameter (theta) - ignored
unrecognized parameter (theta) - ignored
Warning: option itl5 is currently unsupported.
Warning: option itl5 is currently unsupported.
Warning: Unusual leading characters like ')' or others out of '= [] ? () & % $"!:,\f'
Warning: Unusual leading characters like ')' or others out of '= [] ? () & % $"!:,\f'
in netlist or included files, will be replaced with '*'.
in netlist or included files, will be replaced with '*'.
Check line no 4:  )
Check line no 4:  )
Warning: Model issue on line 3 :
Warning: Model issue on line 3 :
.model ncg nmos (level=1 vto=0.75 gamma=1.09 phi=0.9499477708465783 tpg= ...
.model ncg nmos (level=1 vto=0.75 gamma=1.09 phi=0.9499477708465783 tpg= ...
unrecognized parameter (theta) - ignored
unrecognized parameter (theta) - ignored
Warning: option itl5 is currently unsupported.
Warning: option itl5 is currently unsupported.
Warning: Unusual leading characters like ')' or others out of '= [] ? () & % $"!:,\f'
Warning: Unusual leading characters like ')' or others out of '= [] ? () & % $"!:,\f'
in netlist or included files, will be replaced with '*'.
in netlist or included files, will be replaced with '*'.
Check line no 4:  )
Check line no 4:  )
Warning: Model issue on line 3 :
Warning: Model issue on line 3 :
.model ncg nmos (level=1 vto=0.75 gamma=1.09 phi=0.9499477708465783 tpg= ...
.model ncg nmos (level=1 vto=0.75 gamma=1.09 phi=0.9499477708465783 tpg= ...
unrecognized parameter (theta) - ignored
unrecognized parameter (theta) - ignored
Warning: option itl5 is currently unsupported.
Warning: option itl5 is currently unsupported.
Warning: Unusual leading characters like ')' or others out of '= [] ? () & % $"!:,\f'
Warning: Unusual leading characters like ')' or others out of '= [] ? () & % $"!:,\f'
in netlist or included files, will be replaced with '*'.
in netlist or included files, will be replaced with '*'.
Check line no 4:  )
Check line no 4:  )
Warning: Model issue on line 3 :
Warning: Model issue on line 3 :
.model ncg nmos (level=1 vto=0.75 gamma=1.09 phi=0.9499477708465783 tpg= ...
.model ncg nmos (level=1 vto=0.75 gamma=1.09 phi=0.9499477708465783 tpg= ...
unrecognized parameter (theta) - ignored
unrecognized parameter (theta) - ignored
Warning: option itl5 is currently unsupported.
Warning: option itl5 is currently unsupported.
Warning: Unusual leading characters like ')' or others out of '= [] ? () & % $"!:,\f'
Warning: Unusual leading characters like ')' or others out of '= [] ? () & % $"!:,\f'
in netlist or included files, will be replaced with '*'.
in netlist or included files, will be replaced with '*'.
Check line no 4:  )
Check line no 4:  )
Warning: Model issue on line 3 :
Warning: Model issue on line 3 :
.model ncg nmos (level=1 vto=0.75 gamma=1.09 phi=0.9499477708465783 tpg= ...
.model ncg nmos (level=1 vto=0.75 gamma=1.09 phi=0.9499477708465783 tpg= ...
unrecognized parameter (theta) - ignored
unrecognized parameter (theta) - ignored
Warning: option itl5 is currently unsupported.
Warning: option itl5 is currently unsupported.
Warning: Unusual leading characters like ')' or others out of '= [] ? () & % $"!:,\f'
Warning: Unusual leading characters like ')' or others out of '= [] ? () & % $"!:,\f'
in netlist or included files, will be replaced with '*'.
in netlist or included files, will be replaced with '*'.
Check line no 4:  )
Check line no 4:  )
Warning: Model issue on line 3 :
Warning: Model issue on line 3 :
.model ncg nmos (level=1 vto=0.75 gamma=1.09 phi=0.9499477708465783 tpg= ...
.model ncg nmos (level=1 vto=0.75 gamma=1.09 phi=0.9499477708465783 tpg= ...
unrecognized parameter (theta) - ignored
unrecognized parameter (theta) - ignored
Warning: option itl5 is currently unsupported.
Warning: option itl5 is currently unsupported.
Warning: Unusual leading characters like ')' or others out of '= [] ? () & % $"!:,\f'
Warning: Unusual leading characters like ')' or others out of '= [] ? () & % $"!:,\f'
in netlist or included files, will be replaced with '*'.
in netlist or included files, will be replaced with '*'.
Check line no 4:  )
Check line no 4:  )
Warning: Model issue on line 3 :
Warning: Model issue on line 3 :
.model ncg nmos (level=1 vto=0.75 gamma=1.09 phi=0.9499477708465783 tpg= ...
.model ncg nmos (level=1 vto=0.75 gamma=1.09 phi=0.9499477708465783 tpg= ...
unrecognized parameter (theta) - ignored
unrecognized parameter (theta) - ignored
Warning: option itl5 is currently unsupported.
Warning: option itl5 is currently unsupported.
Warning: Unusual leading characters like ')' or others out of '= [] ? () & % $"!:,\f'
Warning: Unusual leading characters like ')' or others out of '= [] ? () & % $"!:,\f'
in netlist or included files, will be replaced with '*'.
in netlist or included files, will be replaced with '*'.
Check line no 4:  )
Check line no 4:  )
Warning: Model issue on line 3 :
Warning: Model issue on line 3 :
.model ncg nmos (level=1 vto=0.75 gamma=1.09 phi=0.9499477708465783 tpg= ...
.model ncg nmos (level=1 vto=0.75 gamma=1.09 phi=0.9499477708465783 tpg= ...
unrecognized parameter (theta) - ignored
unrecognized parameter (theta) - ignored
Warning: option itl5 is currently unsupported.
Warning: option itl5 is currently unsupported.
Warning: Unusual leading characters like ')' or others out of '= [] ? () & % $"!:,\f'
Warning: Unusual leading characters like ')' or others out of '= [] ? () & % $"!:,\f'
in netlist or included files, will be replaced with '*'.
in netlist or included files, will be replaced with '*'.
Check line no 4:  )
Check line no 4:  )
Warning: Model issue on line 3 :
Warning: Model issue on line 3 :
.model ncg nmos (level=1 vto=0.75 gamma=1.09 phi=0.9499477708465783 tpg= ...
.model ncg nmos (level=1 vto=0.75 gamma=1.09 phi=0.9499477708465783 tpg= ...
unrecognized parameter (theta) - ignored
unrecognized parameter (theta) - ignored
Warning: option itl5 is currently unsupported.
Warning: option itl5 is currently unsupported.
Warning: Unusual leading characters like ')' or others out of '= [] ? () & % $"!:,\f'
Warning: Unusual leading characters like ')' or others out of '= [] ? () & % $"!:,\f'
in netlist or included files, will be replaced with '*'.
in netlist or included files, will be replaced with '*'.
Check line no 4:  )
Check line no 4:  )
Warning: Model issue on line 3 :
Warning: Model issue on line 3 :
.model ncg nmos (level=1 vto=0.75 gamma=1.09 phi=0.9499477708465783 tpg= ...
.model ncg nmos (level=1 vto=0.75 gamma=1.09 phi=0.9499477708465783 tpg= ...
unrecognized parameter (theta) - ignored
unrecognized parameter (theta) - ignored
Warning: option itl5 is currently unsupported.
Warning: option itl5 is currently unsupported.
Warning: Unusual leading characters like ')' or others out of '= [] ? () & % $"!:,\f'
Warning: Unusual leading characters like ')' or others out of '= [] ? () & % $"!:,\f'
in netlist or included files, will be replaced with '*'.
in netlist or included files, will be replaced with '*'.
Check line no 4:  )
Check line no 4:  )
Warning: Model issue on line 3 :
Warning: Model issue on line 3 :
.model ncg nmos (level=1 vto=0.75 gamma=1.09 phi=0.9499477708465783 tpg= ...
.model ncg nmos (level=1 vto=0.75 gamma=1.09 phi=0.9499477708465783 tpg= ...
unrecognized parameter (theta) - ignored
unrecognized parameter (theta) - ignored
Warning: option itl5 is currently unsupported.
Warning: option itl5 is currently unsupported.
Warning: Unusual leading characters like ')' or others out of '= [] ? () & % $"!:,\f'
Warning: Unusual leading characters like ')' or others out of '= [] ? () & % $"!:,\f'
in netlist or included files, will be replaced with '*'.
in netlist or included files, will be replaced with '*'.
Check line no 4:  )
Check line no 4:  )
Warning: Model issue on line 3 :
Warning: Model issue on line 3 :
.model ncg nmos (level=1 vto=0.75 gamma=1.09 phi=0.9499477708465783 tpg= ...
.model ncg nmos (level=1 vto=0.75 gamma=1.09 phi=0.9499477708465783 tpg= ...
unrecognized parameter (theta) - ignored
unrecognized parameter (theta) - ignored
Warning: option itl5 is currently unsupported.
Warning: option itl5 is currently unsupported.
Warning: Unusual leading characters like ')' or others out of '= [] ? () & % $"!:,\f'
Warning: Unusual leading characters like ')' or others out of '= [] ? () & % $"!:,\f'
in netlist or included files, will be replaced with '*'.
in netlist or included files, will be replaced with '*'.
Check line no 4:  )
Check line no 4:  )
Warning: Model issue on line 3 :
Warning: Model issue on line 3 :
.model ncg nmos (level=1 vto=0.75 gamma=1.09 phi=0.9499477708465783 tpg= ...
.model ncg nmos (level=1 vto=0.75 gamma=1.09 phi=0.9499477708465783 tpg= ...
unrecognized parameter (theta) - ignored
unrecognized parameter (theta) - ignored
Warning: option itl5 is currently unsupported.
Warning: option itl5 is currently unsupported.
