rc=1 dt_s=630.145

--- stderr tail ---
unrecognized parameter (theta) - ignored
unrecognized parameter (theta) - ignored
Warning: option itl5 is currently unsupported.
Warning: option itl5 is currently unsupported.
Warning: Unusual leading characters like ')' or others out of '= [] ? () & % $"!:,\f'
Warning: Unusual leading characters like ')' or others out of '= [] ? () & % $"!:,\f'
in netlist or included files, will be replaced with '*'.
in netlist or included files, will be replaced with '*'.
Check line no 4:  )
Check line no 4:  )
Warning: Model issue on line 3 :
Warning: Model issue on line 3 :
.model ncg nmos (level=1 vto=0.75 gamma=1.09 phi=0.9499477708465783 tpg= ...
.model ncg nmos (level=1 vto=0.75 gamma=1.09 phi=0.9499477708465783 tpg= ...
unrecognized parameter (theta) - ignored
unrecognized parameter (theta) - ignored
Warning: option itl5 is currently unsupported.
Warning: option itl5 is currently unsupported.
Warning: Unusual leading characters like ')' or others out of '= [] ? () & % $"!:,\f'
Warning: Unusual leading characters like ')' or others out of '= [] ? () & % $"!:,\f'
in netlist or included files, will be replaced with '*'.
in netlist or included files, will be replaced with '*'.
Check line no 4:  )
Check line no 4:  )
Warning: Model issue on line 3 :
Warning: Model issue on line 3 :
.model ncg nmos (level=1 vto=0.75 gamma=1.09 phi=0.9499477708465783 tpg= ...
.model ncg nmos (level=1 vto=0.75 gamma=1.09 phi=0.9499477708465783 tpg= ...
unrecognized parameter (theta) - ignored
unrecognized parameter (theta) - ignored
Warning: option itl5 is currently unsupported.
Warning: option itl5 is currently unsupported.
Warning: Unusual leading characters like ')' or others out of '= [] ? () & % $"!:,\f'
Warning: Unusual leading characters like ')' or others out of '= [] ? () & % $"!:,\f'
in netlist or included files, will be replaced with '*'.
in netlist or included files, will be replaced with '*'.
Check line no 4:  )
Check line no 4:  )
Warning: Model issue on line 3 :
Warning: Model issue on line 3 :
.model ncg nmos (level=1 vto=0.75 gamma=1.09 phi=0.9499477708465783 tpg= ...
.model ncg nmos (level=1 vto=0.75 gamma=1.09 phi=0.9499477708465783 tpg= ...
unrecognized parameter (theta) - ignored
unrecognized parameter (theta) - ignored
Warning: option itl5 is currently unsupported.
Warning: option itl5 is currently unsupported.
Warning: Unusual leading characters like ')' or others out of '= [] ? () & % $"!:,\f'
Warning: Unusual leading characters like ')' or others out of '= [] ? () & % $"!:,\f'
in netlist or included files, will be replaced with '*'.
in netlist or included files, will be replaced with '*'.
Check line no 4:  )
Check line no 4:  )
Warning: Model issue on line 3 :
Warning: Model issue on line 3 :
.model ncg nmos (level=1 vto=0.75 gamma=1.09 phi=0.9499477708465783 tpg= ...
.model ncg nmos (level=1 vto=0.75 gamma=1.09 phi=0.9499477708465783 tpg= ...
unrecognized parameter (theta) - ignored
unrecognized parameter (theta) - ignored
Warning: option itl5 is currently unsupported.
Warning: option itl5 is currently unsupported.
Warning: Unusual leading characters like ')' or others out of '= [] ? () & % $"!:,\f'
Warning: Unusual leading characters like ')' or others out of '= [] ? () & % $"!:,\f'
in netlist or included files, will be replaced with '*'.
in netlist or included files, will be replaced with '*'.
Check line no 4:  )
Check line no 4:  )
Warning: Model issue on line 3 :
Warning: Model issue on line 3 :
.model ncg nmos (level=1 vto=0.75 gamma=1.09 phi=0.9499477708465783 tpg= ...
.model ncg nmos (level=1 vto=0.75 gamma=1.09 phi=0.9499477708465783 tpg= ...
unrecognized parameter (theta) - ignored
unrecognized parameter (theta) - ignored
Warning: option itl5 is currently unsupported.
Warning: option itl5 is currently unsupported.
Warning: Unusual leading characters like ')' or others out of '= [] ? () & % $"!:,\f'
Warning: Unusual leading characters like ')' or others out of '= [] ? () & % $"!:,\f'
in netlist or included files, will be replaced with '*'.
in netlist or included files, will be replaced with '*'.
Check line no 4:  )
Check line no 4:  )
Warning: Model issue on line 3 :
Warning: Model issue on line 3 :
.model ncg nmos (level=1 vto=0.75 gamma=1.09 phi=0.9499477708465783 tpg= ...
.model ncg nmos (level=1 vto=0.75 gamma=1.09 phi=0.9499477708465783 tpg= ...
unrecognized parameter (theta) - ignored
unrecognized parameter (theta) - ignored
Warning: option itl5 is currently unsupported.
Warning: option itl5 is currently unsupported.
Warning: Unusual leading characters like ')' or others out of '= [] ? () & % $"!:,\f'
Warning: Unusual leading characters like ')' or others out of '= [] ? () & % $"!:,\f'
in netlist or included files, will be replaced with '*'.
in netlist or included files, will be replaced with '*'.
Check line no 4:  )
Check line no 4:  )
Warning: Model issue on line 3 :
Warning: Model issue on line 3 :
.model ncg nmos (level=1 vto=0.75 gamma=1.09 phi=0.9499477708465783 tpg= ...
.model ncg nmos (level=1 vto=0.75 gamma=1.09 phi=0.9499477708465783 tpg= ...
unrecognized parameter (theta) - ignored
unrecognized parameter (theta) - ignored
Warning: option itl5 is currently unsupported.
Warning: option itl5 is currently unsupported.
Traceback (most recent call last):
Traceback (most recent call last):
  File "/home/ma-lab/Desktop/pyclln-final/scikit_digit/auto_prune_trainer.py", line 1156, in <module>
  File "/home/ma-lab/Desktop/pyclln-final/scikit_digit/auto_prune_trainer.py", line 1156, in <module>
        main()main()

  File "/home/ma-lab/Desktop/pyclln-final/scikit_digit/auto_prune_trainer.py", line 1091, in main
  File "/home/ma-lab/Desktop/pyclln-final/scikit_digit/auto_prune_trainer.py", line 1091, in main
        topo, vg_unique, below_counts, _ = prune_topology(topo, vg_unique, below_counts, _ = prune_topology(

                                                                              ^^^^^^^^^^^^^^^^^^^^^^^^^^^^^^

  File "/home/ma-lab/Desktop/pyclln-final/scikit_digit/auto_prune_trainer.py", line 445, in prune_topology
  File "/home/ma-lab/Desktop/pyclln-final/scikit_digit/auto_prune_trainer.py", line 445, in prune_topology
        raise RuntimeError("All edges pruned; stopping training.")raise RuntimeError("All edges pruned; stopping training.")

RuntimeErrorRuntimeError: : All edges pruned; stopping training.All edges pruned; stopping training.


--- stdout tail ---
[prune] epoch 32: removed 1 edges (vg < 0.75 for 4 epochs), remaining=60[prune] epoch 32: removed 1 edges (vg < 0.75 for 4 epochs), remaining=60

[epoch 33/100] seed=1 gamma=0.3 delta=0.1 margin=0.1 in=[0.0,1.0] Nin=64 K=10 rails=[0.0,0.45] solver=klu body_tie=floating body_res=10.0 rs_clamp=10.0 vg_init=fixed vg_cutoff=0.75 vg_cutoff_epochs=4 epochs=100 device_include=/home/ma-lab/Desktop/pyclln-final/device_model/nmos_lvl1_ald1106.lib subckt=NMOSWRAP topology=digits_8x8_dense_io_x1.npz | TRAIN acc=0.6159 hinge=0.136414 hinge_frac=0.627 free=1437 clamp=901 skipped=536 reloadF=0 reloadC=0 nonfiniteF=0 nonfiniteC=0[epoch 33/100] seed=1 gamma=0.3 delta=0.1 margin=0.1 in=[0.0,1.0] Nin=64 K=10 rails=[0.0,0.45] solver=klu body_tie=floating body_res=10.0 rs_clamp=10.0 vg_init=fixed vg_cutoff=0.75 vg_cutoff_epochs=4 epochs=100 device_include=/home/ma-lab/Desktop/pyclln-final/device_model/nmos_lvl1_ald1106.lib subckt=NMOSWRAP topology=digits_8x8_dense_io_x1.npz | TRAIN acc=0.6159 hinge=0.136414 hinge_frac=0.627 free=1437 clamp=901 skipped=536 reloadF=0 reloadC=0 nonfiniteF=0 nonfiniteC=0

[epoch 33/100] seed=1 gamma=0.3 delta=0.1 margin=0.1 in=[0.0,1.0] Nin=64 K=10 rails=[0.0,0.45] solver=klu body_tie=floating body_res=10.0 rs_clamp=10.0 vg_init=fixed vg_cutoff=0.75 vg_cutoff_epochs=4 epochs=100 device_include=/home/ma-lab/Desktop/pyclln-final/device_model/nmos_lvl1_ald1106.lib subckt=NMOSWRAP topology=digits_8x8_dense_io_x1.npz | VAL acc=0.6250 hinge=0.132685 test_satisfy=0.3500 test_gap_mean=-0.0029 | timing total=5.14s free=1.56s clamp=0.92s upd=0.24s[epoch 33/100] seed=1 gamma=0.3 delta=0.1 margin=0.1 in=[0.0,1.0] Nin=64 K=10 rails=[0.0,0.45] solver=klu body_tie=floating body_res=10.0 rs_clamp=10.0 vg_init=fixed vg_cutoff=0.75 vg_cutoff_epochs=4 epochs=100 device_include=/home/ma-lab/Desktop/pyclln-final/device_model/nmos_lvl1_ald1106.lib subckt=NMOSWRAP topology=digits_8x8_dense_io_x1.npz | VAL acc=0.6250 hinge=0.132685 test_satisfy=0.3500 test_gap_mean=-0.0029 | timing total=5.14s free=1.56s clamp=0.92s upd=0.24s

[prune] epoch 33: removed 2 edges (vg < 0.75 for 4 epochs), remaining=58[prune] epoch 33: removed 2 edges (vg < 0.75 for 4 epochs), remaining=58

[epoch 34/100] seed=1 gamma=0.3 delta=0.1 margin=0.1 in=[0.0,1.0] Nin=64 K=10 rails=[0.0,0.45] solver=klu body_tie=floating body_res=10.0 rs_clamp=10.0 vg_init=fixed vg_cutoff=0.75 vg_cutoff_epochs=4 epochs=100 device_include=/home/ma-lab/Desktop/pyclln-final/device_model/nmos_lvl1_ald1106.lib subckt=NMOSWRAP topology=digits_8x8_dense_io_x1.npz | TRAIN acc=0.6284 hinge=0.132252 hinge_frac=0.637 free=1437 clamp=916 skipped=521 reloadF=0 reloadC=0 nonfiniteF=0 nonfiniteC=0[epoch 34/100] seed=1 gamma=0.3 delta=0.1 margin=0.1 in=[0.0,1.0] Nin=64 K=10 rails=[0.0,0.45] solver=klu body_tie=floating body_res=10.0 rs_clamp=10.0 vg_init=fixed vg_cutoff=0.75 vg_cutoff_epochs=4 epochs=100 device_include=/home/ma-lab/Desktop/pyclln-final/device_model/nmos_lvl1_ald1106.lib subckt=NMOSWRAP topology=digits_8x8_dense_io_x1.npz | TRAIN acc=0.6284 hinge=0.132252 hinge_frac=0.637 free=1437 clamp=916 skipped=521 reloadF=0 reloadC=0 nonfiniteF=0 nonfiniteC=0

[epoch 34/100] seed=1 gamma=0.3 delta=0.1 margin=0.1 in=[0.0,1.0] Nin=64 K=10 rails=[0.0,0.45] solver=klu body_tie=floating body_res=10.0 rs_clamp=10.0 vg_init=fixed vg_cutoff=0.75 vg_cutoff_epochs=4 epochs=100 device_include=/home/ma-lab/Desktop/pyclln-final/device_model/nmos_lvl1_ald1106.lib subckt=NMOSWRAP topology=digits_8x8_dense_io_x1.npz | VAL acc=0.6083 hinge=0.132317 test_satisfy=0.3472 test_gap_mean=-0.0024 | timing total=5.03s free=1.50s clamp=0.90s upd=0.34s[epoch 34/100] seed=1 gamma=0.3 delta=0.1 margin=0.1 in=[0.0,1.0] Nin=64 K=10 rails=[0.0,0.45] solver=klu body_tie=floating body_res=10.0 rs_clamp=10.0 vg_init=fixed vg_cutoff=0.75 vg_cutoff_epochs=4 epochs=100 device_include=/home/ma-lab/Desktop/pyclln-final/device_model/nmos_lvl1_ald1106.lib subckt=NMOSWRAP topology=digits_8x8_dense_io_x1.npz | VAL acc=0.6083 hinge=0.132317 test_satisfy=0.3472 test_gap_mean=-0.0024 | timing total=5.03s free=1.50s clamp=0.90s upd=0.34s

[prune] epoch 34: removed 3 edges (vg < 0.75 for 4 epochs), remaining=55[prune] epoch 34: removed 3 edges (vg < 0.75 for 4 epochs), remaining=55

[epoch 35/100] seed=1 gamma=0.3 delta=0.1 margin=0.1 in=[0.0,1.0] Nin=64 K=10 rails=[0.0,0.45] solver=klu body_tie=floating body_res=10.0 rs_clamp=10.0 vg_init=fixed vg_cutoff=0.75 vg_cutoff_epochs=4 epochs=100 device_include=/home/ma-lab/Desktop/pyclln-final/device_model/nmos_lvl1_ald1106.lib subckt=NMOSWRAP topology=digits_8x8_dense_io_x1.npz | TRAIN acc=0.6249 hinge=0.124581 hinge_frac=0.648 free=1437 clamp=931 skipped=506 reloadF=0 reloadC=0 nonfiniteF=0 nonfiniteC=0[epoch 35/100] seed=1 gamma=0.3 delta=0.1 margin=0.1 in=[0.0,1.0] Nin=64 K=10 rails=[0.0,0.45] solver=klu body_tie=floating body_res=10.0 rs_clamp=10.0 vg_init=fixed vg_cutoff=0.75 vg_cutoff_epochs=4 epochs=100 device_include=/home/ma-lab/Desktop/pyclln-final/device_model/nmos_lvl1_ald1106.lib subckt=NMOSWRAP topology=digits_8x8_dense_io_x1.npz | TRAIN acc=0.6249 hinge=0.124581 hinge_frac=0.648 free=1437 clamp=931 skipped=506 reloadF=0 reloadC=0 nonfiniteF=0 nonfiniteC=0

[epoch 35/100] seed=1 gamma=0.3 delta=0.1 margin=0.1 in=[0.0,1.0] Nin=64 K=10 rails=[0.0,0.45] solver=klu body_tie=floating body_res=10.0 rs_clamp=10.0 vg_init=fixed vg_cutoff=0.75 vg_cutoff_epochs=4 epochs=100 device_include=/home/ma-lab/Desktop/pyclln-final/device_model/nmos_lvl1_ald1106.lib subckt=NMOSWRAP topology=digits_8x8_dense_io_x1.npz | VAL acc=0.6083 hinge=0.125006 test_satisfy=0.3028 test_gap_mean=0.0043 | timing total=4.90s free=1.43s clamp=0.87s upd=0.22s[epoch 35/100] seed=1 gamma=0.3 delta=0.1 margin=0.1 in=[0.0,1.0] Nin=64 K=10 rails=[0.0,0.45] solver=klu body_tie=floating body_res=10.0 rs_clamp=10.0 vg_init=fixed vg_cutoff=0.75 vg_cutoff_epochs=4 epochs=100 device_include=/home/ma-lab/Desktop/pyclln-final/device_model/nmos_lvl1_ald1106.lib subckt=NMOSWRAP topology=digits_8x8_dense_io_x1.npz | VAL acc=0.6083 hinge=0.125006 test_satisfy=0.3028 test_gap_mean=0.0043 | timing total=4.90s free=1.43s clamp=0.87s upd=0.22s

[prune] epoch 35: removed 4 edges (vg < 0.75 for 4 epochs), remaining=51[prune] epoch 35: removed 4 edges (vg < 0.75 for 4 epochs), remaining=51

[epoch 36/100] seed=1 gamma=0.3 delta=0.1 margin=0.1 in=[0.0,1.0] Nin=64 K=10 rails=[0.0,0.45] solver=klu body_tie=floating body_res=10.0 rs_clamp=10.0 vg_init=fixed vg_cutoff=0.75 vg_cutoff_epochs=4 epochs=100 device_include=/home/ma-lab/Desktop/pyclln-final/device_model/nmos_lvl1_ald1106.lib subckt=NMOSWRAP topology=digits_8x8_dense_io_x1.npz | TRAIN acc=0.5017 hinge=0.130740 hinge_frac=0.785 free=1437 clamp=1128 skipped=309 reloadF=0 reloadC=0 nonfiniteF=0 nonfiniteC=0[epoch 36/100] seed=1 gamma=0.3 delta=0.1 margin=0.1 in=[0.0,1.0] Nin=64 K=10 rails=[0.0,0.45] solver=klu body_tie=floating body_res=10.0 rs_clamp=10.0 vg_init=fixed vg_cutoff=0.75 vg_cutoff_epochs=4 epochs=100 device_include=/home/ma-lab/Desktop/pyclln-final/device_model/nmos_lvl1_ald1106.lib subckt=NMOSWRAP topology=digits_8x8_dense_io_x1.npz | TRAIN acc=0.5017 hinge=0.130740 hinge_frac=0.785 free=1437 clamp=1128 skipped=309 reloadF=0 reloadC=0 nonfiniteF=0 nonfiniteC=0

[epoch 36/100] seed=1 gamma=0.3 delta=0.1 margin=0.1 in=[0.0,1.0] Nin=64 K=10 rails=[0.0,0.45] solver=klu body_tie=floating body_res=10.0 rs_clamp=10.0 vg_init=fixed vg_cutoff=0.75 vg_cutoff_epochs=4 epochs=100 device_include=/home/ma-lab/Desktop/pyclln-final/device_model/nmos_lvl1_ald1106.lib subckt=NMOSWRAP topology=digits_8x8_dense_io_x1.npz | VAL acc=0.4389 hinge=0.153716 test_satisfy=0.1944 test_gap_mean=-0.0211 | timing total=4.96s free=1.28s clamp=0.98s upd=0.37s[epoch 36/100] seed=1 gamma=0.3 delta=0.1 margin=0.1 in=[0.0,1.0] Nin=64 K=10 rails=[0.0,0.45] solver=klu body_tie=floating body_res=10.0 rs_clamp=10.0 vg_init=fixed vg_cutoff=0.75 vg_cutoff_epochs=4 epochs=100 device_include=/home/ma-lab/Desktop/pyclln-final/device_model/nmos_lvl1_ald1106.lib subckt=NMOSWRAP topology=digits_8x8_dense_io_x1.npz | VAL acc=0.4389 hinge=0.153716 test_satisfy=0.1944 test_gap_mean=-0.0211 | timing total=4.96s free=1.28s clamp=0.98s upd=0.37s

[prune] epoch 36: removed 1 edges (vg < 0.75 for 4 epochs), remaining=50[prune] epoch 36: removed 1 edges (vg < 0.75 for 4 epochs), remaining=50

[epoch 37/100] seed=1 gamma=0.3 delta=0.1 margin=0.1 in=[0.0,1.0] Nin=64 K=10 rails=[0.0,0.45] solver=klu body_tie=floating body_res=10.0 rs_clamp=10.0 vg_init=fixed vg_cutoff=0.75 vg_cutoff_epochs=4 epochs=100 device_include=/home/ma-lab/Desktop/pyclln-final/device_model/nmos_lvl1_ald1106.lib subckt=NMOSWRAP topology=digits_8x8_dense_io_x1.npz | TRAIN acc=0.4419 hinge=0.147907 hinge_frac=0.786 free=1437 clamp=1130 skipped=307 reloadF=0 reloadC=0 nonfiniteF=0 nonfiniteC=0[epoch 37/100] seed=1 gamma=0.3 delta=0.1 margin=0.1 in=[0.0,1.0] Nin=64 K=10 rails=[0.0,0.45] solver=klu body_tie=floating body_res=10.0 rs_clamp=10.0 vg_init=fixed vg_cutoff=0.75 vg_cutoff_epochs=4 epochs=100 device_include=/home/ma-lab/Desktop/pyclln-final/device_model/nmos_lvl1_ald1106.lib subckt=NMOSWRAP topology=digits_8x8_dense_io_x1.npz | TRAIN acc=0.4419 hinge=0.147907 hinge_frac=0.786 free=1437 clamp=1130 skipped=307 reloadF=0 reloadC=0 nonfiniteF=0 nonfiniteC=0

[epoch 37/100] seed=1 gamma=0.3 delta=0.1 margin=0.1 in=[0.0,1.0] Nin=64 K=10 rails=[0.0,0.45] solver=klu body_tie=floating body_res=10.0 rs_clamp=10.0 vg_init=fixed vg_cutoff=0.75 vg_cutoff_epochs=4 epochs=100 device_include=/home/ma-lab/Desktop/pyclln-final/device_model/nmos_lvl1_ald1106.lib subckt=NMOSWRAP topology=digits_8x8_dense_io_x1.npz | VAL acc=0.4222 hinge=0.159683 test_satisfy=0.1806 test_gap_mean=-0.0221 | timing total=4.83s free=1.34s clamp=0.93s upd=0.25s[epoch 37/100] seed=1 gamma=0.3 delta=0.1 margin=0.1 in=[0.0,1.0] Nin=64 K=10 rails=[0.0,0.45] solver=klu body_tie=floating body_res=10.0 rs_clamp=10.0 vg_init=fixed vg_cutoff=0.75 vg_cutoff_epochs=4 epochs=100 device_include=/home/ma-lab/Desktop/pyclln-final/device_model/nmos_lvl1_ald1106.lib subckt=NMOSWRAP topology=digits_8x8_dense_io_x1.npz | VAL acc=0.4222 hinge=0.159683 test_satisfy=0.1806 test_gap_mean=-0.0221 | timing total=4.83s free=1.34s clamp=0.93s upd=0.25s

[prune] epoch 37: removed 2 edges (vg < 0.75 for 4 epochs), remaining=48[prune] epoch 37: removed 2 edges (vg < 0.75 for 4 epochs), remaining=48

[epoch 38/100] seed=1 gamma=0.3 delta=0.1 margin=0.1 in=[0.0,1.0] Nin=64 K=10 rails=[0.0,0.45] solver=klu body_tie=floating body_res=10.0 rs_clamp=10.0 vg_init=fixed vg_cutoff=0.75 vg_cutoff_epochs=4 epochs=100 device_include=/home/ma-lab/Desktop/pyclln-final/device_model/nmos_lvl1_ald1106.lib subckt=NMOSWRAP topology=digits_8x8_dense_io_x1.npz | TRAIN acc=0.4245 hinge=0.150931 hinge_frac=0.786 free=1437 clamp=1130 skipped=307 reloadF=0 reloadC=0 nonfiniteF=0 nonfiniteC=0[epoch 38/100] seed=1 gamma=0.3 delta=0.1 margin=0.1 in=[0.0,1.0] Nin=64 K=10 rails=[0.0,0.45] solver=klu body_tie=floating body_res=10.0 rs_clamp=10.0 vg_init=fixed vg_cutoff=0.75 vg_cutoff_epochs=4 epochs=100 device_include=/home/ma-lab/Desktop/pyclln-final/device_model/nmos_lvl1_ald1106.lib subckt=NMOSWRAP topology=digits_8x8_dense_io_x1.npz | TRAIN acc=0.4245 hinge=0.150931 hinge_frac=0.786 free=1437 clamp=1130 skipped=307 reloadF=0 reloadC=0 nonfiniteF=0 nonfiniteC=0

[epoch 38/100] seed=1 gamma=0.3 delta=0.1 margin=0.1 in=[0.0,1.0] Nin=64 K=10 rails=[0.0,0.45] solver=klu body_tie=floating body_res=10.0 rs_clamp=10.0 vg_init=fixed vg_cutoff=0.75 vg_cutoff_epochs=4 epochs=100 device_include=/home/ma-lab/Desktop/pyclln-final/device_model/nmos_lvl1_ald1106.lib subckt=NMOSWRAP topology=digits_8x8_dense_io_x1.npz | VAL acc=0.3583 hinge=0.169367 test_satisfy=0.2417 test_gap_mean=-0.0331 | timing total=4.65s free=1.21s clamp=0.88s upd=0.29s[epoch 38/100] seed=1 gamma=0.3 delta=0.1 margin=0.1 in=[0.0,1.0] Nin=64 K=10 rails=[0.0,0.45] solver=klu body_tie=floating body_res=10.0 rs_clamp=10.0 vg_init=fixed vg_cutoff=0.75 vg_cutoff_epochs=4 epochs=100 device_include=/home/ma-lab/Desktop/pyclln-final/device_model/nmos_lvl1_ald1106.lib subckt=NMOSWRAP topology=digits_8x8_dense_io_x1.npz | VAL acc=0.3583 hinge=0.169367 test_satisfy=0.2417 test_gap_mean=-0.0331 | timing total=4.65s free=1.21s clamp=0.88s upd=0.29s

[prune] epoch 38: removed 1 edges (vg < 0.75 for 4 epochs), remaining=47[prune] epoch 38: removed 1 edges (vg < 0.75 for 4 epochs), remaining=47

[epoch 39/100] seed=1 gamma=0.3 delta=0.1 margin=0.1 in=[0.0,1.0] Nin=64 K=10 rails=[0.0,0.45] solver=klu body_tie=floating body_res=10.0 rs_clamp=10.0 vg_init=fixed vg_cutoff=0.75 vg_cutoff_epochs=4 epochs=100 device_include=/home/ma-lab/Desktop/pyclln-final/device_model/nmos_lvl1_ald1106.lib subckt=NMOSWRAP topology=digits_8x8_dense_io_x1.npz | TRAIN acc=0.4322 hinge=0.151337 hinge_frac=0.781 free=1437 clamp=1122 skipped=315 reloadF=0 reloadC=0 nonfiniteF=0 nonfiniteC=0[epoch 39/100] seed=1 gamma=0.3 delta=0.1 margin=0.1 in=[0.0,1.0] Nin=64 K=10 rails=[0.0,0.45] solver=klu body_tie=floating body_res=10.0 rs_clamp=10.0 vg_init=fixed vg_cutoff=0.75 vg_cutoff_epochs=4 epochs=100 device_include=/home/ma-lab/Desktop/pyclln-final/device_model/nmos_lvl1_ald1106.lib subckt=NMOSWRAP topology=digits_8x8_dense_io_x1.npz | TRAIN acc=0.4322 hinge=0.151337 hinge_frac=0.781 free=1437 clamp=1122 skipped=315 reloadF=0 reloadC=0 nonfiniteF=0 nonfiniteC=0

[epoch 39/100] seed=1 gamma=0.3 delta=0.1 margin=0.1 in=[0.0,1.0] Nin=64 K=10 rails=[0.0,0.45] solver=klu body_tie=floating body_res=10.0 rs_clamp=10.0 vg_init=fixed vg_cutoff=0.75 vg_cutoff_epochs=4 epochs=100 device_include=/home/ma-lab/Desktop/pyclln-final/device_model/nmos_lvl1_ald1106.lib subckt=NMOSWRAP topology=digits_8x8_dense_io_x1.npz | VAL acc=0.4167 hinge=0.159011 test_satisfy=0.1722 test_gap_mean=-0.0301 | timing total=4.55s free=1.17s clamp=0.85s upd=0.22s[epoch 39/100] seed=1 gamma=0.3 delta=0.1 margin=0.1 in=[0.0,1.0] Nin=64 K=10 rails=[0.0,0.45] solver=klu body_tie=floating body_res=10.0 rs_clamp=10.0 vg_init=fixed vg_cutoff=0.75 vg_cutoff_epochs=4 epochs=100 device_include=/home/ma-lab/Desktop/pyclln-final/device_model/nmos_lvl1_ald1106.lib subckt=NMOSWRAP topology=digits_8x8_dense_io_x1.npz | VAL acc=0.4167 hinge=0.159011 test_satisfy=0.1722 test_gap_mean=-0.0301 | timing total=4.55s free=1.17s clamp=0.85s upd=0.22s

[prune] epoch 39: removed 14 edges (vg < 0.75 for 4 epochs), remaining=33[prune] epoch 39: removed 14 edges (vg < 0.75 for 4 epochs), remaining=33

[epoch 40/100] seed=1 gamma=0.3 delta=0.1 margin=0.1 in=[0.0,1.0] Nin=64 K=10 rails=[0.0,0.45] solver=klu body_tie=floating body_res=10.0 rs_clamp=10.0 vg_init=fixed vg_cutoff=0.75 vg_cutoff_epochs=4 epochs=100 device_include=/home/ma-lab/Desktop/pyclln-final/device_model/nmos_lvl1_ald1106.lib subckt=NMOSWRAP topology=digits_8x8_dense_io_x1.npz | TRAIN acc=0.4106 hinge=0.149215 hinge_frac=0.795 free=1437 clamp=1142 skipped=295 reloadF=0 reloadC=0 nonfiniteF=0 nonfiniteC=0[epoch 40/100] seed=1 gamma=0.3 delta=0.1 margin=0.1 in=[0.0,1.0] Nin=64 K=10 rails=[0.0,0.45] solver=klu body_tie=floating body_res=10.0 rs_clamp=10.0 vg_init=fixed vg_cutoff=0.75 vg_cutoff_epochs=4 epochs=100 device_include=/home/ma-lab/Desktop/pyclln-final/device_model/nmos_lvl1_ald1106.lib subckt=NMOSWRAP topology=digits_8x8_dense_io_x1.npz | TRAIN acc=0.4106 hinge=0.149215 hinge_frac=0.795 free=1437 clamp=1142 skipped=295 reloadF=0 reloadC=0 nonfiniteF=0 nonfiniteC=0

[epoch 40/100] seed=1 gamma=0.3 delta=0.1 margin=0.1 in=[0.0,1.0] Nin=64 K=10 rails=[0.0,0.45] solver=klu body_tie=floating body_res=10.0 rs_clamp=10.0 vg_init=fixed vg_cutoff=0.75 vg_cutoff_epochs=4 epochs=100 device_include=/home/ma-lab/Desktop/pyclln-final/device_model/nmos_lvl1_ald1106.lib subckt=NMOSWRAP topology=digits_8x8_dense_io_x1.npz | VAL acc=0.3972 hinge=0.166677 test_satisfy=0.2139 test_gap_mean=-0.0301 | timing total=3.85s free=0.85s clamp=0.67s upd=0.17s[epoch 40/100] seed=1 gamma=0.3 delta=0.1 margin=0.1 in=[0.0,1.0] Nin=64 K=10 rails=[0.0,0.45] solver=klu body_tie=floating body_res=10.0 rs_clamp=10.0 vg_init=fixed vg_cutoff=0.75 vg_cutoff_epochs=4 epochs=100 device_include=/home/ma-lab/Desktop/pyclln-final/device_model/nmos_lvl1_ald1106.lib subckt=NMOSWRAP topology=digits_8x8_dense_io_x1.npz | VAL acc=0.3972 hinge=0.166677 test_satisfy=0.2139 test_gap_mean=-0.0301 | timing total=3.85s free=0.85s clamp=0.67s upd=0.17s

[epoch 41/100] seed=1 gamma=0.3 delta=0.1 margin=0.1 in=[0.0,1.0] Nin=64 K=10 rails=[0.0,0.45] solver=klu body_tie=floating body_res=10.0 rs_clamp=10.0 vg_init=fixed vg_cutoff=0.75 vg_cutoff_epochs=4 epochs=100 device_include=/home/ma-lab/Desktop/pyclln-final/device_model/nmos_lvl1_ald1106.lib subckt=NMOSWRAP topology=digits_8x8_dense_io_x1.npz | TRAIN acc=0.3981 hinge=0.156597 hinge_frac=0.799 free=1437 clamp=1148 skipped=289 reloadF=0 reloadC=0 nonfiniteF=0 nonfiniteC=0[epoch 41/100] seed=1 gamma=0.3 delta=0.1 margin=0.1 in=[0.0,1.0] Nin=64 K=10 rails=[0.0,0.45] solver=klu body_tie=floating body_res=10.0 rs_clamp=10.0 vg_init=fixed vg_cutoff=0.75 vg_cutoff_epochs=4 epochs=100 device_include=/home/ma-lab/Desktop/pyclln-final/device_model/nmos_lvl1_ald1106.lib subckt=NMOSWRAP topology=digits_8x8_dense_io_x1.npz | TRAIN acc=0.3981 hinge=0.156597 hinge_frac=0.799 free=1437 clamp=1148 skipped=289 reloadF=0 reloadC=0 nonfiniteF=0 nonfiniteC=0

[epoch 41/100] seed=1 gamma=0.3 delta=0.1 margin=0.1 in=[0.0,1.0] Nin=64 K=10 rails=[0.0,0.45] solver=klu body_tie=floating body_res=10.0 rs_clamp=10.0 vg_init=fixed vg_cutoff=0.75 vg_cutoff_epochs=4 epochs=100 device_include=/home/ma-lab/Desktop/pyclln-final/device_model/nmos_lvl1_ald1106.lib subckt=NMOSWRAP topology=digits_8x8_dense_io_x1.npz | VAL acc=0.3778 hinge=0.159277 test_satisfy=0.1639 test_gap_mean=-0.0301 | timing total=3.84s free=0.86s clamp=0.67s upd=0.17s[epoch 41/100] seed=1 gamma=0.3 delta=0.1 margin=0.1 in=[0.0,1.0] Nin=64 K=10 rails=[0.0,0.45] solver=klu body_tie=floating body_res=10.0 rs_clamp=10.0 vg_init=fixed vg_cutoff=0.75 vg_cutoff_epochs=4 epochs=100 device_include=/home/ma-lab/Desktop/pyclln-final/device_model/nmos_lvl1_ald1106.lib subckt=NMOSWRAP topology=digits_8x8_dense_io_x1.npz | VAL acc=0.3778 hinge=0.159277 test_satisfy=0.1639 test_gap_mean=-0.0301 | timing total=3.84s free=0.86s clamp=0.67s upd=0.17s

[epoch 42/100] seed=1 gamma=0.3 delta=0.1 margin=0.1 in=[0.0,1.0] Nin=64 K=10 rails=[0.0,0.45] solver=klu body_tie=floating body_res=10.0 rs_clamp=10.0 vg_init=fixed vg_cutoff=0.75 vg_cutoff_epochs=4 epochs=100 device_include=/home/ma-lab/Desktop/pyclln-final/device_model/nmos_lvl1_ald1106.lib subckt=NMOSWRAP topology=digits_8x8_dense_io_x1.npz | TRAIN acc=0.3967 hinge=0.154475 hinge_frac=0.784 free=1437 clamp=1126 skipped=311 reloadF=0 reloadC=0 nonfiniteF=0 nonfiniteC=0[epoch 42/100] seed=1 gamma=0.3 delta=0.1 margin=0.1 in=[0.0,1.0] Nin=64 K=10 rails=[0.0,0.45] solver=klu body_tie=floating body_res=10.0 rs_clamp=10.0 vg_init=fixed vg_cutoff=0.75 vg_cutoff_epochs=4 epochs=100 device_include=/home/ma-lab/Desktop/pyclln-final/device_model/nmos_lvl1_ald1106.lib subckt=NMOSWRAP topology=digits_8x8_dense_io_x1.npz | TRAIN acc=0.3967 hinge=0.154475 hinge_frac=0.784 free=1437 clamp=1126 skipped=311 reloadF=0 reloadC=0 nonfiniteF=0 nonfiniteC=0

[epoch 42/100] seed=1 gamma=0.3 delta=0.1 margin=0.1 in=[0.0,1.0] Nin=64 K=10 rails=[0.0,0.45] solver=klu body_tie=floating body_res=10.0 rs_clamp=10.0 vg_init=fixed vg_cutoff=0.75 vg_cutoff_epochs=4 epochs=100 device_include=/home/ma-lab/Desktop/pyclln-final/device_model/nmos_lvl1_ald1106.lib subckt=NMOSWRAP topology=digits_8x8_dense_io_x1.npz | VAL acc=0.3944 hinge=0.152173 test_satisfy=0.1750 test_gap_mean=-0.0213 | timing total=3.66s free=0.97s clamp=0.66s upd=0.16s[epoch 42/100] seed=1 gamma=0.3 delta=0.1 margin=0.1 in=[0.0,1.0] Nin=64 K=10 rails=[0.0,0.45] solver=klu body_tie=floating body_res=10.0 rs_clamp=10.0 vg_init=fixed vg_cutoff=0.75 vg_cutoff_epochs=4 epochs=100 device_include=/home/ma-lab/Desktop/pyclln-final/device_model/nmos_lvl1_ald1106.lib subckt=NMOSWRAP topology=digits_8x8_dense_io_x1.npz | VAL acc=0.3944 hinge=0.152173 test_satisfy=0.1750 test_gap_mean=-0.0213 | timing total=3.66s free=0.97s clamp=0.66s upd=0.16s

[prune] epoch 42: removed 2 edges (vg < 0.75 for 4 epochs), remaining=31[prune] epoch 42: removed 2 edges (vg < 0.75 for 4 epochs), remaining=31

[epoch 43/100] seed=1 gamma=0.3 delta=0.1 margin=0.1 in=[0.0,1.0] Nin=64 K=10 rails=[0.0,0.45] solver=klu body_tie=floating body_res=10.0 rs_clamp=10.0 vg_init=fixed vg_cutoff=0.75 vg_cutoff_epochs=4 epochs=100 device_include=/home/ma-lab/Desktop/pyclln-final/device_model/nmos_lvl1_ald1106.lib subckt=NMOSWRAP topology=digits_8x8_dense_io_x1.npz | TRAIN acc=0.3271 hinge=0.154768 hinge_frac=0.833 free=1437 clamp=1197 skipped=240 reloadF=0 reloadC=0 nonfiniteF=0 nonfiniteC=0[epoch 43/100] seed=1 gamma=0.3 delta=0.1 margin=0.1 in=[0.0,1.0] Nin=64 K=10 rails=[0.0,0.45] solver=klu body_tie=floating body_res=10.0 rs_clamp=10.0 vg_init=fixed vg_cutoff=0.75 vg_cutoff_epochs=4 epochs=100 device_include=/home/ma-lab/Desktop/pyclln-final/device_model/nmos_lvl1_ald1106.lib subckt=NMOSWRAP topology=digits_8x8_dense_io_x1.npz | TRAIN acc=0.3271 hinge=0.154768 hinge_frac=0.833 free=1437 clamp=1197 skipped=240 reloadF=0 reloadC=0 nonfiniteF=0 nonfiniteC=0

[epoch 43/100] seed=1 gamma=0.3 delta=0.1 margin=0.1 in=[0.0,1.0] Nin=64 K=10 rails=[0.0,0.45] solver=klu body_tie=floating body_res=10.0 rs_clamp=10.0 vg_init=fixed vg_cutoff=0.75 vg_cutoff_epochs=4 epochs=100 device_include=/home/ma-lab/Desktop/pyclln-final/device_model/nmos_lvl1_ald1106.lib subckt=NMOSWRAP topology=digits_8x8_dense_io_x1.npz | VAL acc=0.3222 hinge=0.165834 test_satisfy=0.1167 test_gap_mean=-0.0476 | timing total=3.72s free=0.93s clamp=0.66s upd=0.16s[epoch 43/100] seed=1 gamma=0.3 delta=0.1 margin=0.1 in=[0.0,1.0] Nin=64 K=10 rails=[0.0,0.45] solver=klu body_tie=floating body_res=10.0 rs_clamp=10.0 vg_init=fixed vg_cutoff=0.75 vg_cutoff_epochs=4 epochs=100 device_include=/home/ma-lab/Desktop/pyclln-final/device_model/nmos_lvl1_ald1106.lib subckt=NMOSWRAP topology=digits_8x8_dense_io_x1.npz | VAL acc=0.3222 hinge=0.165834 test_satisfy=0.1167 test_gap_mean=-0.0476 | timing total=3.72s free=0.93s clamp=0.66s upd=0.16s

[prune] epoch 43: removed 13 edges (vg < 0.75 for 4 epochs), remaining=18[prune] epoch 43: removed 13 edges (vg < 0.75 for 4 epochs), remaining=18

[epoch 44/100] seed=1 gamma=0.3 delta=0.1 margin=0.1 in=[0.0,1.0] Nin=64 K=10 rails=[0.0,0.45] solver=klu body_tie=floating body_res=10.0 rs_clamp=10.0 vg_init=fixed vg_cutoff=0.75 vg_cutoff_epochs=4 epochs=100 device_include=/home/ma-lab/Desktop/pyclln-final/device_model/nmos_lvl1_ald1106.lib subckt=NMOSWRAP topology=digits_8x8_dense_io_x1.npz | TRAIN acc=0.2874 hinge=0.149642 hinge_frac=0.836 free=1437 clamp=1201 skipped=236 reloadF=0 reloadC=0 nonfiniteF=0 nonfiniteC=0[epoch 44/100] seed=1 gamma=0.3 delta=0.1 margin=0.1 in=[0.0,1.0] Nin=64 K=10 rails=[0.0,0.45] solver=klu body_tie=floating body_res=10.0 rs_clamp=10.0 vg_init=fixed vg_cutoff=0.75 vg_cutoff_epochs=4 epochs=100 device_include=/home/ma-lab/Desktop/pyclln-final/device_model/nmos_lvl1_ald1106.lib subckt=NMOSWRAP topology=digits_8x8_dense_io_x1.npz | TRAIN acc=0.2874 hinge=0.149642 hinge_frac=0.836 free=1437 clamp=1201 skipped=236 reloadF=0 reloadC=0 nonfiniteF=0 nonfiniteC=0
