Unsupported Ngspice version 41
Unsupported Ngspice version 41
Warning: Unusual leading characters like ')' or others out of '= [] ? () & % $"!:,\f'
Warning: Unusual leading characters like ')' or others out of '= [] ? () & % $"!:,\f'
in netlist or included files, will be replaced with '*'.
in netlist or included files, will be replaced with '*'.
Check line no 4:  )
Check line no 4:  )
Warning: Model issue on line 3 :
Warning: Model issue on line 3 :
.model ncg nmos (level=1 vto=0.75 gamma=1.09 phi=0.9499477708465783 tpg= ...
.model ncg nmos (level=1 vto=0.75 gamma=1.09 phi=0.9499477708465783 tpg= ...
unrecognized parameter (theta) - ignored
unrecognized parameter (theta) - ignored
Warning: option itl5 is currently unsupported.
Warning: option itl5 is currently unsupported.
Warning: Unusual leading characters like ')' or others out of '= [] ? () & % $"!:,\f'
Warning: Unusual leading characters like ')' or others out of '= [] ? () & % $"!:,\f'
in netlist or included files, will be replaced with '*'.
in netlist or included files, will be replaced with '*'.
Check line no 4:  )
Check line no 4:  )
Warning: Model issue on line 3 :
Warning: Model issue on line 3 :
.model ncg nmos (level=1 vto=0.75 gamma=1.09 phi=0.9499477708465783 tpg= ...
.model ncg nmos (level=1 vto=0.75 gamma=1.09 phi=0.9499477708465783 tpg= ...
unrecognized parameter (theta) - ignored
unrecognized parameter (theta) - ignored
Warning: option itl5 is currently unsupported.
Warning: option itl5 is currently unsupported.
Warning: Unusual leading characters like ')' or others out of '= [] ? () & % $"!:,\f'
Warning: Unusual leading characters like ')' or others out of '= [] ? () & % $"!:,\f'
in netlist or included files, will be replaced with '*'.
in netlist or included files, will be replaced with '*'.
Check line no 4:  )
Check line no 4:  )
Warning: Model issue on line 3 :
Warning: Model issue on line 3 :
.model ncg nmos (level=1 vto=0.75 gamma=1.09 phi=0.9499477708465783 tpg= ...
.model ncg nmos (level=1 vto=0.75 gamma=1.09 phi=0.9499477708465783 tpg= ...
unrecognized parameter (theta) - ignored
unrecognized parameter (theta) - ignored
Warning: option itl5 is currently unsupported.
Warning: option itl5 is currently unsupported.
Warning: Unusual leading characters like ')' or others out of '= [] ? () & % $"!:,\f'
Warning: Unusual leading characters like ')' or others out of '= [] ? () & % $"!:,\f'
in netlist or included files, will be replaced with '*'.
in netlist or included files, will be replaced with '*'.
Check line no 4:  )
Check line no 4:  )
Warning: Model issue on line 3 :
Warning: Model issue on line 3 :
.model ncg nmos (level=1 vto=0.75 gamma=1.09 phi=0.9499477708465783 tpg= ...
.model ncg nmos (level=1 vto=0.75 gamma=1.09 phi=0.9499477708465783 tpg= ...
unrecognized parameter (theta) - ignored
unrecognized parameter (theta) - ignored
Warning: option itl5 is currently unsupported.
Warning: option itl5 is currently unsupported.
Warning: Unusual leading characters like ')' or others out of '= [] ? () & % $"!:,\f'
Warning: Unusual leading characters like ')' or others out of '= [] ? () & % $"!:,\f'
in netlist or included files, will be replaced with '*'.
in netlist or included files, will be replaced with '*'.
Check line no 4:  )
Check line no 4:  )
Warning: Model issue on line 3 :
Warning: Model issue on line 3 :
.model ncg nmos (level=1 vto=0.75 gamma=1.09 phi=0.9499477708465783 tpg= ...
.model ncg nmos (level=1 vto=0.75 gamma=1.09 phi=0.9499477708465783 tpg= ...
unrecognized parameter (theta) - ignored
unrecognized parameter (theta) - ignored
Warning: option itl5 is currently unsupported.
Warning: option itl5 is currently unsupported.
Warning: Unusual leading characters like ')' or others out of '= [] ? () & % $"!:,\f'
Warning: Unusual leading characters like ')' or others out of '= [] ? () & % $"!:,\f'
in netlist or included files, will be replaced with '*'.
in netlist or included files, will be replaced with '*'.
Check line no 4:  )
Check line no 4:  )
Warning: Model issue on line 3 :
Warning: Model issue on line 3 :
.model ncg nmos (level=1 vto=0.75 gamma=1.09 phi=0.9499477708465783 tpg= ...
.model ncg nmos (level=1 vto=0.75 gamma=1.09 phi=0.9499477708465783 tpg= ...
unrecognized parameter (theta) - ignored
unrecognized parameter (theta) - ignored
Warning: option itl5 is currently unsupported.
Warning: option itl5 is currently unsupported.
Warning: Unusual leading characters like ')' or others out of '= [] ? () & % $"!:,\f'
Warning: Unusual leading characters like ')' or others out of '= [] ? () & % $"!:,\f'
in netlist or included files, will be replaced with '*'.
in netlist or included files, will be replaced with '*'.
Check line no 4:  )
Check line no 4:  )
Warning: Model issue on line 3 :
Warning: Model issue on line 3 :
.model ncg nmos (level=1 vto=0.75 gamma=1.09 phi=0.9499477708465783 tpg= ...
.model ncg nmos (level=1 vto=0.75 gamma=1.09 phi=0.9499477708465783 tpg= ...
unrecognized parameter (theta) - ignored
unrecognized parameter (theta) - ignored
Warning: option itl5 is currently unsupported.
Warning: option itl5 is currently unsupported.
Warning: Unusual leading characters like ')' or others out of '= [] ? () & % $"!:,\f'
Warning: Unusual leading characters like ')' or others out of '= [] ? () & % $"!:,\f'
in netlist or included files, will be replaced with '*'.
in netlist or included files, will be replaced with '*'.
Check line no 4:  )
Check line no 4:  )
Warning: Model issue on line 3 :
Warning: Model issue on line 3 :
.model ncg nmos (level=1 vto=0.75 gamma=1.09 phi=0.9499477708465783 tpg= ...
.model ncg nmos (level=1 vto=0.75 gamma=1.09 phi=0.9499477708465783 tpg= ...
unrecognized parameter (theta) - ignored
unrecognized parameter (theta) - ignored
Warning: option itl5 is currently unsupported.
Warning: option itl5 is currently unsupported.
Warning: Unusual leading characters like ')' or others out of '= [] ? () & % $"!:,\f'
Warning: Unusual leading characters like ')' or others out of '= [] ? () & % $"!:,\f'
in netlist or included files, will be replaced with '*'.
in netlist or included files, will be replaced with '*'.
Check line no 4:  )
Check line no 4:  )
Warning: Model issue on line 3 :
Warning: Model issue on line 3 :
.model ncg nmos (level=1 vto=0.75 gamma=1.09 phi=0.9499477708465783 tpg= ...
.model ncg nmos (level=1 vto=0.75 gamma=1.09 phi=0.9499477708465783 tpg= ...
unrecognized parameter (theta) - ignored
unrecognized parameter (theta) - ignored
Warning: option itl5 is currently unsupported.
Warning: option itl5 is currently unsupported.
Warning: Unusual leading characters like ')' or others out of '= [] ? () & % $"!:,\f'
Warning: Unusual leading characters like ')' or others out of '= [] ? () & % $"!:,\f'
in netlist or included files, will be replaced with '*'.
in netlist or included files, will be replaced with '*'.
Check line no 4:  )
Check line no 4:  )
Warning: Model issue on line 3 :
Warning: Model issue on line 3 :
.model ncg nmos (level=1 vto=0.75 gamma=1.09 phi=0.9499477708465783 tpg= ...
.model ncg nmos (level=1 vto=0.75 gamma=1.09 phi=0.9499477708465783 tpg= ...
unrecognized parameter (theta) - ignored
unrecognized parameter (theta) - ignored
Warning: option itl5 is currently unsupported.
Warning: option itl5 is currently unsupported.
Warning: Unusual leading characters like ')' or others out of '= [] ? () & % $"!:,\f'
Warning: Unusual leading characters like ')' or others out of '= [] ? () & % $"!:,\f'
in netlist or included files, will be replaced with '*'.
in netlist or included files, will be replaced with '*'.
Check line no 4:  )
Check line no 4:  )
Warning: Model issue on line 3 :
Warning: Model issue on line 3 :
.model ncg nmos (level=1 vto=0.75 gamma=1.09 phi=0.9499477708465783 tpg= ...
.model ncg nmos (level=1 vto=0.75 gamma=1.09 phi=0.9499477708465783 tpg= ...
unrecognized parameter (theta) - ignored
unrecognized parameter (theta) - ignored
Warning: option itl5 is currently unsupported.
Warning: option itl5 is currently unsupported.
Warning: Unusual leading characters like ')' or others out of '= [] ? () & % $"!:,\f'
Warning: Unusual leading characters like ')' or others out of '= [] ? () & % $"!:,\f'
in netlist or included files, will be replaced with '*'.
in netlist or included files, will be replaced with '*'.
Check line no 4:  )
Check line no 4:  )
Warning: Model issue on line 3 :
Warning: Model issue on line 3 :
.model ncg nmos (level=1 vto=0.75 gamma=1.09 phi=0.9499477708465783 tpg= ...
.model ncg nmos (level=1 vto=0.75 gamma=1.09 phi=0.9499477708465783 tpg= ...
unrecognized parameter (theta) - ignored
unrecognized parameter (theta) - ignored
Warning: option itl5 is currently unsupported.
Warning: option itl5 is currently unsupported.
Warning: Unusual leading characters like ')' or others out of '= [] ? () & % $"!:,\f'
Warning: Unusual leading characters like ')' or others out of '= [] ? () & % $"!:,\f'
in netlist or included files, will be replaced with '*'.
in netlist or included files, will be replaced with '*'.
Check line no 4:  )
Check line no 4:  )
Warning: Model issue on line 3 :
Warning: Model issue on line 3 :
.model ncg nmos (level=1 vto=0.75 gamma=1.09 phi=0.9499477708465783 tpg= ...
.model ncg nmos (level=1 vto=0.75 gamma=1.09 phi=0.9499477708465783 tpg= ...
unrecognized parameter (theta) - ignored
unrecognized parameter (theta) - ignored
Warning: option itl5 is currently unsupported.
Warning: option itl5 is currently unsupported.
Warning: Unusual leading characters like ')' or others out of '= [] ? () & % $"!:,\f'
Warning: Unusual leading characters like ')' or others out of '= [] ? () & % $"!:,\f'
in netlist or included files, will be replaced with '*'.
in netlist or included files, will be replaced with '*'.
Check line no 4:  )
Check line no 4:  )
Warning: Model issue on line 3 :
Warning: Model issue on line 3 :
.model ncg nmos (level=1 vto=0.75 gamma=1.09 phi=0.9499477708465783 tpg= ...
.model ncg nmos (level=1 vto=0.75 gamma=1.09 phi=0.9499477708465783 tpg= ...
unrecognized parameter (theta) - ignored
unrecognized parameter (theta) - ignored
Warning: option itl5 is currently unsupported.
Warning: option itl5 is currently unsupported.
Warning: Unusual leading characters like ')' or others out of '= [] ? () & % $"!:,\f'
Warning: Unusual leading characters like ')' or others out of '= [] ? () & % $"!:,\f'
in netlist or included files, will be replaced with '*'.
in netlist or included files, will be replaced with '*'.
Check line no 4:  )
Check line no 4:  )
Warning: Model issue on line 3 :
Warning: Model issue on line 3 :
.model ncg nmos (level=1 vto=0.75 gamma=1.09 phi=0.9499477708465783 tpg= ...
.model ncg nmos (level=1 vto=0.75 gamma=1.09 phi=0.9499477708465783 tpg= ...
unrecognized parameter (theta) - ignored
unrecognized parameter (theta) - ignored
Warning: option itl5 is currently unsupported.
Warning: option itl5 is currently unsupported.
Warning: Unusual leading characters like ')' or others out of '= [] ? () & % $"!:,\f'
Warning: Unusual leading characters like ')' or others out of '= [] ? () & % $"!:,\f'
in netlist or included files, will be replaced with '*'.
in netlist or included files, will be replaced with '*'.
Check line no 4:  )
Check line no 4:  )
Warning: Model issue on line 3 :
Warning: Model issue on line 3 :
.model ncg nmos (level=1 vto=0.75 gamma=1.09 phi=0.9499477708465783 tpg= ...
.model ncg nmos (level=1 vto=0.75 gamma=1.09 phi=0.9499477708465783 tpg= ...
unrecognized parameter (theta) - ignored
unrecognized parameter (theta) - ignored
Warning: option itl5 is currently unsupported.
Warning: option itl5 is currently unsupported.
Warning: Unusual leading characters like ')' or others out of '= [] ? () & % $"!:,\f'
Warning: Unusual leading characters like ')' or others out of '= [] ? () & % $"!:,\f'
in netlist or included files, will be replaced with '*'.
in netlist or included files, will be replaced with '*'.
Check line no 4:  )
Check line no 4:  )
Warning: Model issue on line 3 :
Warning: Model issue on line 3 :
.model ncg nmos (level=1 vto=0.75 gamma=1.09 phi=0.9499477708465783 tpg= ...
.model ncg nmos (level=1 vto=0.75 gamma=1.09 phi=0.9499477708465783 tpg= ...
unrecognized parameter (theta) - ignored
unrecognized parameter (theta) - ignored
Warning: option itl5 is currently unsupported.
Warning: option itl5 is currently unsupported.
Warning: Unusual leading characters like ')' or others out of '= [] ? () & % $"!:,\f'
Warning: Unusual leading characters like ')' or others out of '= [] ? () & % $"!:,\f'
in netlist or included files, will be replaced with '*'.
in netlist or included files, will be replaced with '*'.
Check line no 4:  )
Check line no 4:  )
Warning: Model issue on line 3 :
Warning: Model issue on line 3 :
.model ncg nmos (level=1 vto=0.75 gamma=1.09 phi=0.9499477708465783 tpg= ...
.model ncg nmos (level=1 vto=0.75 gamma=1.09 phi=0.9499477708465783 tpg= ...
unrecognized parameter (theta) - ignored
unrecognized parameter (theta) - ignored
Warning: option itl5 is currently unsupported.
Warning: option itl5 is currently unsupported.
Warning: Unusual leading characters like ')' or others out of '= [] ? () & % $"!:,\f'
Warning: Unusual leading characters like ')' or others out of '= [] ? () & % $"!:,\f'
in netlist or included files, will be replaced with '*'.
in netlist or included files, will be replaced with '*'.
Check line no 4:  )
Check line no 4:  )
Warning: Model issue on line 3 :
Warning: Model issue on line 3 :
.model ncg nmos (level=1 vto=0.75 gamma=1.09 phi=0.9499477708465783 tpg= ...
.model ncg nmos (level=1 vto=0.75 gamma=1.09 phi=0.9499477708465783 tpg= ...
unrecognized parameter (theta) - ignored
unrecognized parameter (theta) - ignored
Warning: option itl5 is currently unsupported.
Warning: option itl5 is currently unsupported.
Warning: Unusual leading characters like ')' or others out of '= [] ? () & % $"!:,\f'
Warning: Unusual leading characters like ')' or others out of '= [] ? () & % $"!:,\f'
in netlist or included files, will be replaced with '*'.
in netlist or included files, will be replaced with '*'.
Check line no 4:  )
Check line no 4:  )
Warning: Model issue on line 3 :
Warning: Model issue on line 3 :
.model ncg nmos (level=1 vto=0.75 gamma=1.09 phi=0.9499477708465783 tpg= ...
.model ncg nmos (level=1 vto=0.75 gamma=1.09 phi=0.9499477708465783 tpg= ...
unrecognized parameter (theta) - ignored
unrecognized parameter (theta) - ignored
Warning: option itl5 is currently unsupported.
Warning: option itl5 is currently unsupported.
Warning: Unusual leading characters like ')' or others out of '= [] ? () & % $"!:,\f'
Warning: Unusual leading characters like ')' or others out of '= [] ? () & % $"!:,\f'
in netlist or included files, will be replaced with '*'.
in netlist or included files, will be replaced with '*'.
Check line no 4:  )
Check line no 4:  )
Warning: Model issue on line 3 :
Warning: Model issue on line 3 :
.model ncg nmos (level=1 vto=0.75 gamma=1.09 phi=0.9499477708465783 tpg= ...
.model ncg nmos (level=1 vto=0.75 gamma=1.09 phi=0.9499477708465783 tpg= ...
unrecognized parameter (theta) - ignored
unrecognized parameter (theta) - ignored
Warning: option itl5 is currently unsupported.
Warning: option itl5 is currently unsupported.
Warning: Unusual leading characters like ')' or others out of '= [] ? () & % $"!:,\f'
Warning: Unusual leading characters like ')' or others out of '= [] ? () & % $"!:,\f'
in netlist or included files, will be replaced with '*'.
in netlist or included files, will be replaced with '*'.
Check line no 4:  )
Check line no 4:  )
Warning: Model issue on line 3 :
Warning: Model issue on line 3 :
.model ncg nmos (level=1 vto=0.75 gamma=1.09 phi=0.9499477708465783 tpg= ...
.model ncg nmos (level=1 vto=0.75 gamma=1.09 phi=0.9499477708465783 tpg= ...
unrecognized parameter (theta) - ignored
unrecognized parameter (theta) - ignored
Warning: option itl5 is currently unsupported.
Warning: option itl5 is currently unsupported.
Warning: Unusual leading characters like ')' or others out of '= [] ? () & % $"!:,\f'
Warning: Unusual leading characters like ')' or others out of '= [] ? () & % $"!:,\f'
in netlist or included files, will be replaced with '*'.
in netlist or included files, will be replaced with '*'.
Check line no 4:  )
Check line no 4:  )
Warning: Model issue on line 3 :
Warning: Model issue on line 3 :
.model ncg nmos (level=1 vto=0.75 gamma=1.09 phi=0.9499477708465783 tpg= ...
.model ncg nmos (level=1 vto=0.75 gamma=1.09 phi=0.9499477708465783 tpg= ...
unrecognized parameter (theta) - ignored
unrecognized parameter (theta) - ignored
Warning: option itl5 is currently unsupported.
Warning: option itl5 is currently unsupported.
Warning: Unusual leading characters like ')' or others out of '= [] ? () & % $"!:,\f'
Warning: Unusual leading characters like ')' or others out of '= [] ? () & % $"!:,\f'
in netlist or included files, will be replaced with '*'.
in netlist or included files, will be replaced with '*'.
Check line no 4:  )
Check line no 4:  )
Warning: Model issue on line 3 :
Warning: Model issue on line 3 :
.model ncg nmos (level=1 vto=0.75 gamma=1.09 phi=0.9499477708465783 tpg= ...
.model ncg nmos (level=1 vto=0.75 gamma=1.09 phi=0.9499477708465783 tpg= ...
unrecognized parameter (theta) - ignored
unrecognized parameter (theta) - ignored
Warning: option itl5 is currently unsupported.
Warning: option itl5 is currently unsupported.
Warning: Unusual leading characters like ')' or others out of '= [] ? () & % $"!:,\f'
Warning: Unusual leading characters like ')' or others out of '= [] ? () & % $"!:,\f'
in netlist or included files, will be replaced with '*'.
in netlist or included files, will be replaced with '*'.
Check line no 4:  )
Check line no 4:  )
Warning: Model issue on line 3 :
Warning: Model issue on line 3 :
.model ncg nmos (level=1 vto=0.75 gamma=1.09 phi=0.9499477708465783 tpg= ...
.model ncg nmos (level=1 vto=0.75 gamma=1.09 phi=0.9499477708465783 tpg= ...
unrecognized parameter (theta) - ignored
unrecognized parameter (theta) - ignored
Warning: option itl5 is currently unsupported.
Warning: option itl5 is currently unsupported.
Warning: Unusual leading characters like ')' or others out of '= [] ? () & % $"!:,\f'
Warning: Unusual leading characters like ')' or others out of '= [] ? () & % $"!:,\f'
in netlist or included files, will be replaced with '*'.
in netlist or included files, will be replaced with '*'.
Check line no 4:  )
Check line no 4:  )
Warning: Model issue on line 3 :
Warning: Model issue on line 3 :
.model ncg nmos (level=1 vto=0.75 gamma=1.09 phi=0.9499477708465783 tpg= ...
.model ncg nmos (level=1 vto=0.75 gamma=1.09 phi=0.9499477708465783 tpg= ...
unrecognized parameter (theta) - ignored
unrecognized parameter (theta) - ignored
Warning: option itl5 is currently unsupported.
Warning: option itl5 is currently unsupported.
Warning: Unusual leading characters like ')' or others out of '= [] ? () & % $"!:,\f'
Warning: Unusual leading characters like ')' or others out of '= [] ? () & % $"!:,\f'
in netlist or included files, will be replaced with '*'.
in netlist or included files, will be replaced with '*'.
Check line no 4:  )
Check line no 4:  )
Warning: Model issue on line 3 :
Warning: Model issue on line 3 :
.model ncg nmos (level=1 vto=0.75 gamma=1.09 phi=0.9499477708465783 tpg= ...
.model ncg nmos (level=1 vto=0.75 gamma=1.09 phi=0.9499477708465783 tpg= ...
unrecognized parameter (theta) - ignored
unrecognized parameter (theta) - ignored
Warning: option itl5 is currently unsupported.
Warning: option itl5 is currently unsupported.
Warning: Unusual leading characters like ')' or others out of '= [] ? () & % $"!:,\f'
Warning: Unusual leading characters like ')' or others out of '= [] ? () & % $"!:,\f'
in netlist or included files, will be replaced with '*'.
in netlist or included files, will be replaced with '*'.
Check line no 4:  )
Check line no 4:  )
Warning: Model issue on line 3 :
Warning: Model issue on line 3 :
.model ncg nmos (level=1 vto=0.75 gamma=1.09 phi=0.9499477708465783 tpg= ...
.model ncg nmos (level=1 vto=0.75 gamma=1.09 phi=0.9499477708465783 tpg= ...
unrecognized parameter (theta) - ignored
unrecognized parameter (theta) - ignored
Warning: option itl5 is currently unsupported.
Warning: option itl5 is currently unsupported.
Warning: Unusual leading characters like ')' or others out of '= [] ? () & % $"!:,\f'
Warning: Unusual leading characters like ')' or others out of '= [] ? () & % $"!:,\f'
in netlist or included files, will be replaced with '*'.
in netlist or included files, will be replaced with '*'.
Check line no 4:  )
Check line no 4:  )
Warning: Model issue on line 3 :
Warning: Model issue on line 3 :
.model ncg nmos (level=1 vto=0.75 gamma=1.09 phi=0.9499477708465783 tpg= ...
.model ncg nmos (level=1 vto=0.75 gamma=1.09 phi=0.9499477708465783 tpg= ...
unrecognized parameter (theta) - ignored
unrecognized parameter (theta) - ignored
Warning: option itl5 is currently unsupported.
Warning: option itl5 is currently unsupported.
Warning: Unusual leading characters like ')' or others out of '= [] ? () & % $"!:,\f'
Warning: Unusual leading characters like ')' or others out of '= [] ? () & % $"!:,\f'
in netlist or included files, will be replaced with '*'.
in netlist or included files, will be replaced with '*'.
Check line no 4:  )
Check line no 4:  )
Warning: Model issue on line 3 :
Warning: Model issue on line 3 :
.model ncg nmos (level=1 vto=0.75 gamma=1.09 phi=0.9499477708465783 tpg= ...
.model ncg nmos (level=1 vto=0.75 gamma=1.09 phi=0.9499477708465783 tpg= ...
unrecognized parameter (theta) - ignored
unrecognized parameter (theta) - ignored
Warning: option itl5 is currently unsupported.
Warning: option itl5 is currently unsupported.
Warning: Unusual leading characters like ')' or others out of '= [] ? () & % $"!:,\f'
Warning: Unusual leading characters like ')' or others out of '= [] ? () & % $"!:,\f'
in netlist or included files, will be replaced with '*'.
in netlist or included files, will be replaced with '*'.
Check line no 4:  )
Check line no 4:  )
Warning: Model issue on line 3 :
Warning: Model issue on line 3 :
.model ncg nmos (level=1 vto=0.75 gamma=1.09 phi=0.9499477708465783 tpg= ...
.model ncg nmos (level=1 vto=0.75 gamma=1.09 phi=0.9499477708465783 tpg= ...
unrecognized parameter (theta) - ignored
unrecognized parameter (theta) - ignored
Warning: option itl5 is currently unsupported.
Warning: option itl5 is currently unsupported.
Warning: Unusual leading characters like ')' or others out of '= [] ? () & % $"!:,\f'
Warning: Unusual leading characters like ')' or others out of '= [] ? () & % $"!:,\f'
in netlist or included files, will be replaced with '*'.
in netlist or included files, will be replaced with '*'.
Check line no 4:  )
Check line no 4:  )
Warning: Model issue on line 3 :
Warning: Model issue on line 3 :
.model ncg nmos (level=1 vto=0.75 gamma=1.09 phi=0.9499477708465783 tpg= ...
.model ncg nmos (level=1 vto=0.75 gamma=1.09 phi=0.9499477708465783 tpg= ...
unrecognized parameter (theta) - ignored
unrecognized parameter (theta) - ignored
Warning: option itl5 is currently unsupported.
Warning: option itl5 is currently unsupported.
Warning: Unusual leading characters like ')' or others out of '= [] ? () & % $"!:,\f'
Warning: Unusual leading characters like ')' or others out of '= [] ? () & % $"!:,\f'
in netlist or included files, will be replaced with '*'.
in netlist or included files, will be replaced with '*'.
Check line no 4:  )
Check line no 4:  )
Warning: Model issue on line 3 :
Warning: Model issue on line 3 :
.model ncg nmos (level=1 vto=0.75 gamma=1.09 phi=0.9499477708465783 tpg= ...
.model ncg nmos (level=1 vto=0.75 gamma=1.09 phi=0.9499477708465783 tpg= ...
unrecognized parameter (theta) - ignored
unrecognized parameter (theta) - ignored
Warning: option itl5 is currently unsupported.
Warning: option itl5 is currently unsupported.
Warning: Unusual leading characters like ')' or others out of '= [] ? () & % $"!:,\f'
Warning: Unusual leading characters like ')' or others out of '= [] ? () & % $"!:,\f'
in netlist or included files, will be replaced with '*'.
in netlist or included files, will be replaced with '*'.
Check line no 4:  )
Check line no 4:  )
Warning: Model issue on line 3 :
Warning: Model issue on line 3 :
.model ncg nmos (level=1 vto=0.75 gamma=1.09 phi=0.9499477708465783 tpg= ...
.model ncg nmos (level=1 vto=0.75 gamma=1.09 phi=0.9499477708465783 tpg= ...
unrecognized parameter (theta) - ignored
unrecognized parameter (theta) - ignored
Warning: option itl5 is currently unsupported.
Warning: option itl5 is currently unsupported.
Warning: Unusual leading characters like ')' or others out of '= [] ? () & % $"!:,\f'
Warning: Unusual leading characters like ')' or others out of '= [] ? () & % $"!:,\f'
in netlist or included files, will be replaced with '*'.
in netlist or included files, will be replaced with '*'.
Check line no 4:  )
Check line no 4:  )
Warning: Model issue on line 3 :
Warning: Model issue on line 3 :
.model ncg nmos (level=1 vto=0.75 gamma=1.09 phi=0.9499477708465783 tpg= ...
.model ncg nmos (level=1 vto=0.75 gamma=1.09 phi=0.9499477708465783 tpg= ...
unrecognized parameter (theta) - ignored
unrecognized parameter (theta) - ignored
Warning: option itl5 is currently unsupported.
Warning: option itl5 is currently unsupported.
Warning: Unusual leading characters like ')' or others out of '= [] ? () & % $"!:,\f'
Warning: Unusual leading characters like ')' or others out of '= [] ? () & % $"!:,\f'
in netlist or included files, will be replaced with '*'.
in netlist or included files, will be replaced with '*'.
Check line no 4:  )
Check line no 4:  )
Warning: Model issue on line 3 :
Warning: Model issue on line 3 :
.model ncg nmos (level=1 vto=0.75 gamma=1.09 phi=0.9499477708465783 tpg= ...
.model ncg nmos (level=1 vto=0.75 gamma=1.09 phi=0.9499477708465783 tpg= ...
unrecognized parameter (theta) - ignored
unrecognized parameter (theta) - ignored
Warning: option itl5 is currently unsupported.
Warning: option itl5 is currently unsupported.
Warning: Unusual leading characters like ')' or others out of '= [] ? () & % $"!:,\f'
Warning: Unusual leading characters like ')' or others out of '= [] ? () & % $"!:,\f'
in netlist or included files, will be replaced with '*'.
in netlist or included files, will be replaced with '*'.
Check line no 4:  )
Check line no 4:  )
Warning: Model issue on line 3 :
Warning: Model issue on line 3 :
.model ncg nmos (level=1 vto=0.75 gamma=1.09 phi=0.9499477708465783 tpg= ...
.model ncg nmos (level=1 vto=0.75 gamma=1.09 phi=0.9499477708465783 tpg= ...
unrecognized parameter (theta) - ignored
unrecognized parameter (theta) - ignored
Warning: option itl5 is currently unsupported.
Warning: option itl5 is currently unsupported.
Warning: Unusual leading characters like ')' or others out of '= [] ? () & % $"!:,\f'
Warning: Unusual leading characters like ')' or others out of '= [] ? () & % $"!:,\f'
in netlist or included files, will be replaced with '*'.
in netlist or included files, will be replaced with '*'.
Check line no 4:  )
Check line no 4:  )
Warning: Model issue on line 3 :
Warning: Model issue on line 3 :
.model ncg nmos (level=1 vto=0.75 gamma=1.09 phi=0.9499477708465783 tpg= ...
.model ncg nmos (level=1 vto=0.75 gamma=1.09 phi=0.9499477708465783 tpg= ...
unrecognized parameter (theta) - ignored
unrecognized parameter (theta) - ignored
Warning: option itl5 is currently unsupported.
Warning: option itl5 is currently unsupported.
Warning: Unusual leading characters like ')' or others out of '= [] ? () & % $"!:,\f'
Warning: Unusual leading characters like ')' or others out of '= [] ? () & % $"!:,\f'
in netlist or included files, will be replaced with '*'.
in netlist or included files, will be replaced with '*'.
Check line no 4:  )
Check line no 4:  )
Warning: Model issue on line 3 :
Warning: Model issue on line 3 :
.model ncg nmos (level=1 vto=0.75 gamma=1.09 phi=0.9499477708465783 tpg= ...
.model ncg nmos (level=1 vto=0.75 gamma=1.09 phi=0.9499477708465783 tpg= ...
unrecognized parameter (theta) - ignored
unrecognized parameter (theta) - ignored
Warning: option itl5 is currently unsupported.
Warning: option itl5 is currently unsupported.
Traceback (most recent call last):
Traceback (most recent call last):
  File "/home/ma-lab/Desktop/pyclln-final/scikit_digit/auto_prune_trainer.py", line 1156, in <module>
  File "/home/ma-lab/Desktop/pyclln-final/scikit_digit/auto_prune_trainer.py", line 1156, in <module>
        main()main()

  File "/home/ma-lab/Desktop/pyclln-final/scikit_digit/auto_prune_trainer.py", line 1091, in main
  File "/home/ma-lab/Desktop/pyclln-final/scikit_digit/auto_prune_trainer.py", line 1091, in main
        topo, vg_unique, below_counts, _ = prune_topology(topo, vg_unique, below_counts, _ = prune_topology(

                                                                              ^^^^^^^^^^^^^^^^^^^^^^^^^^^^^^

  File "/home/ma-lab/Desktop/pyclln-final/scikit_digit/auto_prune_trainer.py", line 445, in prune_topology
  File "/home/ma-lab/Desktop/pyclln-final/scikit_digit/auto_prune_trainer.py", line 445, in prune_topology
        raise RuntimeError("All edges pruned; stopping training.")raise RuntimeError("All edges pruned; stopping training.")

RuntimeErrorRuntimeError: : All edges pruned; stopping training.All edges pruned; stopping training.

